[General]
network = THFatTree
sim-time-limit = 1.000000400s
