[General]
network = THFatTree
sim-time-limit = 1.000001500s
