[General]

[Config THFatTree]
network = THFatTree
sim-time-limit = 1.000004s
